
*** ChampSim Multicore Out-of-Order Simulator ***

Warmup Instructions: 1000000
Simulation Instructions: 10000000
Number of CPUs: 4
LLC sets: 8192
LLC ways: 16
Off-chip DRAM Size: 4096 MB Channels: 1 Width: 64-bit Data Rate: 3200 MT/s

CPU 0 runs /home/shruti/Downloads/ChampSim/dpc3_traces/gcc_13B.trace.xz
CPU 1 runs /home/shruti/Downloads/ChampSim/dpc3_traces/gcc_13B.trace.xz
CPU 2 runs /home/shruti/Downloads/ChampSim/dpc3_traces/gcc_13B.trace.xz
CPU 3 runs /home/shruti/Downloads/ChampSim/dpc3_traces/gcc_13B.trace.xz
CPU 0 Bimodal branch predictor
CPU 1 Bimodal branch predictor
CPU 2 Bimodal branch predictor
CPU 3 Bimodal branch predictor
[DTLB] lru_victim no victim! set: 1
bimodal-no-no-no-no-lru-4core: replacement/base_replacement.cc:76: uint32_t CACHE::lru_victim(uint32_t, uint64_t, uint32_t, const BLOCK*, uint64_t, uint64_t, uint32_t): Assertion `0' failed.
