
*** ChampSim Multicore Out-of-Order Simulator ***

Warmup Instructions: 1000000
Simulation Instructions: 10000000
Number of CPUs: 2
LLC sets: 4096
LLC ways: 16
Off-chip DRAM Size: 4096 MB Channels: 1 Width: 64-bit Data Rate: 3200 MT/s

CPU 0 runs /home/shruti/Downloads/ChampSim/dpc3_traces/gcc_13B.trace.xz
CPU 1 runs /home/shruti/Downloads/ChampSim/dpc3_traces/gcc_13B.trace.xz
CPU 0 Bimodal branch predictor
CPU 1 Bimodal branch predictor

Warmup complete CPU 0 instructions: 1000791 cycles: 556526 (Simulation time: 0 hr 0 min 4 sec) 
Warmup complete CPU 1 instructions: 1000003 cycles: 556526 (Simulation time: 0 hr 0 min 4 sec) 

